models/IEEE_123_FLISR_Case_3Gen/Master.DSS
Clear
New Circuit.ieee123


Redirect Vsource.dss
Redirect LineCode.DSS
Redirect LoadShape.DSS
Redirect GrowthShape.DSS
Redirect TCC_Curve.DSS
Redirect Spectrum.DSS
Redirect Line.DSS
Redirect Load.DSS
Redirect Transformer.DSS
!Redirect RegControl.DSS
Redirect Capacitor.DSS
!Redirect Recloser.DSS
MakeBusList
Redirect BusVoltageBases.dss  ! set voltage bases
Buscoords buscoords.dss

! Note: regcontrol and  reclosers are turned off 
