models/IEEE_123_FLISR_Case/ieee123_VLN_Node.Txt

LINE-GROUND and LINE-LINE VOLTAGES BY BUS & NODE

Bus   Node    VLN (kV)   Angle      pu     Base kV    Node-Node   VLL (kV)  Angle      pu

150 . 1       2.4018 /_    0.0         1     4.160        1-2       4.16 /_   30.0         1
   -  2       2.4018 /_ -120.0         1     4.160        2-3       4.16 /_  -90.0         1
   -  3       2.4018 /_  120.0         1     4.160        3-1       4.16 /_  150.0         1
SUP_2 1       2.4012 /_    0.0   0.99978     4.160        1-2     4.1591 /_   30.0   0.99978
   -  2       2.4014 /_ -120.0   0.99983     4.160        2-3     4.1592 /_  -90.0   0.99982
   -  3       2.4012 /_  120.0   0.99977     4.160        3-1     4.1591 /_  150.0   0.99978
SUP_1 1       2.4004 /_    0.0   0.99943     4.160        1-2     4.1577 /_   30.0   0.99944
   -  2       2.4007 /_ -120.0   0.99957     4.160        2-3     4.1583 /_  -90.0   0.99959
   -  3       2.4008 /_  120.0   0.99958     4.160        3-1     4.1581 /_  150.0   0.99955
SUP_3 1       2.4015 /_    0.0   0.99989     4.160        1-2     4.1597 /_   30.0   0.99992
   -  2       2.4018 /_ -120.0   0.99999     4.160        2-3     4.1601 /_  -90.0         1
   -  3       2.4018 /_  120.0         1     4.160        3-1     4.1598 /_  150.0   0.99995
149 . 1       2.4018 /_    0.0         1     4.160        1-2       4.16 /_   30.0         1
   -  2       2.4018 /_ -120.0         1     4.160        2-3       4.16 /_  -90.0         1
   -  3       2.4018 /_  120.0         1     4.160        3-1       4.16 /_  150.0         1
1 ... 1       2.3944 /_   -0.2   0.99694     4.160        1-2     4.1504 /_   30.0   0.99769
   -  2        2.401 /_ -120.0   0.99967     4.160        2-3     4.1544 /_  -90.1   0.99866
   -  3       2.3956 /_  119.9   0.99742     4.160        3-1     4.1503 /_  149.9   0.99768
2 ... 2       2.4004 /_ -120.0   0.99944     4.160
3 ... 3       2.3916 /_  119.9   0.99577     4.160
7 ... 1       2.3889 /_   -0.2   0.99464     4.160        1-2     4.1441 /_   29.9   0.99618
   -  2       2.4006 /_ -120.1   0.99951     4.160        2-3     4.1512 /_  -90.1   0.99789
   -  3       2.3931 /_  119.9    0.9964     4.160        3-1     4.1454 /_  149.8   0.99648
4 ... 3       2.3904 /_  119.9   0.99524     4.160
5 ... 3       2.3886 /_  119.9   0.99449     4.160
6 ... 3        2.387 /_  119.9   0.99384     4.160
8 ... 1       2.3855 /_   -0.3   0.99324     4.160        1-2     4.1402 /_   29.9   0.99523
   -  2       2.4001 /_ -120.1   0.99932     4.160        2-3      4.149 /_  -90.1   0.99736
   -  3       2.3915 /_  119.9   0.99574     4.160        3-1     4.1421 /_  149.8   0.99571
12 .. 2       2.3994 /_ -120.1   0.99903     4.160
9 ... 1        2.382 /_   -0.3   0.99176     4.160
13 .. 1       2.3829 /_   -0.3   0.99216     4.160        1-2     4.1361 /_   29.9   0.99425
   -  2       2.3986 /_ -120.1   0.99868     4.160        2-3     4.1459 /_  -90.2    0.9966
   -  3       2.3891 /_  119.9   0.99474     4.160        3-1     4.1381 /_  149.7   0.99472
14 .. 1        2.378 /_   -0.4    0.9901     4.160
34 .. 3       2.3868 /_  119.9   0.99375     4.160
18 .. 1       2.3828 /_   -0.4    0.9921     4.160        1-2      4.136 /_   29.9   0.99424
   -  2       2.3989 /_ -120.1    0.9988     4.160        2-3     4.1469 /_  -90.2   0.99686
   -  3       2.3907 /_  119.9   0.99539     4.160        3-1       4.14 /_  149.7   0.99518
11 .. 1       2.3764 /_   -0.4   0.98944     4.160
10 .. 1       2.3772 /_   -0.4   0.98977     4.160
15 .. 3       2.3858 /_  119.9   0.99335     4.160
16 .. 3       2.3834 /_  119.9   0.99236     4.160
17 .. 3       2.3847 /_  119.9   0.99289     4.160
19 .. 1       2.3796 /_   -0.4   0.99078     4.160
21 .. 1        2.383 /_   -0.4    0.9922     4.160        1-2     4.1357 /_   29.9   0.99415
   -  2       2.3986 /_ -120.1   0.99869     4.160        2-3     4.1462 /_  -90.2   0.99669
   -  3       2.3895 /_  119.9    0.9949     4.160        3-1      4.139 /_  149.7   0.99494
20 .. 1       2.3776 /_   -0.4   0.98992     4.160
22 .. 2       2.3953 /_ -120.1   0.99731     4.160
N21 . 1       2.3833 /_   -0.4   0.99232     4.160        1-2     4.1356 /_   29.9   0.99413
   -  2       2.3992 /_ -120.1   0.99893     4.160        2-3     4.1463 /_  -90.2   0.99671
   -  3       2.3882 /_  119.9   0.99435     4.160        3-1     4.1382 /_  149.7   0.99475
23 .. 1       2.3833 /_   -0.4   0.99232     4.160        1-2     4.1356 /_   29.9   0.99413
   -  2       2.3992 /_ -120.1   0.99894     4.160        2-3     4.1463 /_  -90.2   0.99671
   -  3       2.3882 /_  119.9   0.99433     4.160        3-1     4.1381 /_  149.7   0.99474
24 .. 3       2.3847 /_  119.9   0.99287     4.160
25 .. 1       2.3831 /_   -0.4   0.99224     4.160        1-2     4.1354 /_   29.9   0.99409
   -  2       2.3999 /_ -120.1   0.99923     4.160        2-3     4.1466 /_  -90.2   0.99679
   -  3       2.3876 /_  119.9   0.99409     4.160        3-1     4.1379 /_  149.7   0.99468
26 .. 1       2.3825 /_   -0.4   0.99199     4.160
   -  3       2.3864 /_  119.9   0.99358     4.160        3-1     4.1366 /_  149.7   0.99438
28 .. 1       2.3833 /_   -0.4    0.9923     4.160        1-2     4.1357 /_   29.9   0.99415
   -  2       2.4002 /_ -120.1   0.99934     4.160        2-3     4.1471 /_  -90.2    0.9969
   -  3       2.3879 /_  119.9   0.99421     4.160        3-1     4.1383 /_  149.7   0.99479
27 .. 1       2.3817 /_   -0.5   0.99163     4.160
   -  3       2.3863 /_  119.9   0.99355     4.160        3-1     4.1364 /_  149.7   0.99432
31 .. 3       2.3849 /_  119.9   0.99299     4.160
33 .. 1       2.3785 /_   -0.5   0.99031     4.160
29 .. 1       2.3844 /_   -0.4   0.99277     4.160        1-2     4.1368 /_   29.9   0.99443
   -  2       2.4002 /_ -120.1   0.99932     4.160        2-3     4.1479 /_  -90.2   0.99709
   -  3       2.3885 /_  119.9   0.99447     4.160        3-1     4.1393 /_  149.7   0.99503
30 .. 1       2.3868 /_   -0.3   0.99378     4.160        1-2      4.139 /_   29.9   0.99496
   -  2       2.3996 /_ -120.0   0.99908     4.160        2-3     4.1489 /_  -90.2   0.99733
   -  3       2.3894 /_  119.9   0.99484     4.160        3-1     4.1409 /_  149.8    0.9954
250 . 1       2.3878 /_   -0.3    0.9942     4.160        1-2     4.1402 /_   29.9   0.99524
   -  2       2.3993 /_ -120.0   0.99896     4.160        2-3     4.1497 /_  -90.1   0.99751
   -  3       2.3905 /_  119.9   0.99531     4.160        3-1     4.1422 /_  149.8   0.99572
32 .. 3        2.384 /_  119.9   0.99259     4.160
35 .. 1       2.3851 /_   -0.3   0.99306     4.160        1-2     4.1389 /_   29.9   0.99492
   -  2       2.3983 /_ -120.1   0.99856     4.160        2-3     4.1481 /_  -90.1   0.99713
   -  3        2.393 /_  119.9   0.99636     4.160        3-1     4.1431 /_  149.8   0.99593
36 .. 1       2.3829 /_   -0.3   0.99214     4.160        1-2     4.1366 /_   29.8   0.99436
   -  2       2.3972 /_ -120.2   0.99808     4.160
40 .. 1       2.3877 /_   -0.3   0.99415     4.160        1-2     4.1418 /_   29.9   0.99564
   -  2       2.3984 /_ -120.1   0.99858     4.160        2-3     4.1495 /_  -90.1   0.99748
   -  3       2.3943 /_  119.9   0.99688     4.160        3-1     4.1454 /_  149.8   0.99649
37 .. 1        2.381 /_   -0.3   0.99135     4.160
38 .. 2       2.3956 /_ -120.2   0.99742     4.160
39 .. 2       2.3946 /_ -120.2   0.99699     4.160
41 .. 3       2.3933 /_  119.9   0.99646     4.160
42 .. 1       2.3902 /_   -0.2   0.99517     4.160        1-2     4.1448 /_   29.9   0.99636
   -  2       2.3984 /_ -120.1   0.99861     4.160        2-3     4.1511 /_  -90.1   0.99786
   -  3       2.3959 /_  119.9   0.99757     4.160        3-1     4.1481 /_  149.8   0.99713
43 .. 2       2.3953 /_ -120.1    0.9973     4.160
44 .. 1       2.3925 /_   -0.2   0.99615     4.160        1-2     4.1477 /_   29.9   0.99704
   -  2        2.399 /_ -120.1   0.99882     4.160        2-3     4.1528 /_  -90.1   0.99826
   -  3        2.397 /_  120.0     0.998     4.160        3-1     4.1504 /_  149.9   0.99768
45 .. 1       2.3913 /_   -0.2   0.99563     4.160
47 .. 1       2.3963 /_   -0.1   0.99772     4.160        1-2     4.1518 /_   29.9   0.99802
   -  2       2.3991 /_ -120.0    0.9989     4.160        2-3     4.1548 /_  -90.1   0.99875
   -  3       2.3984 /_  120.0   0.99858     4.160        3-1     4.1535 /_  149.9   0.99843
46 .. 1       2.3903 /_   -0.2   0.99523     4.160
48 .. 1       2.4001 /_    0.0    0.9993     4.160        1-2     4.1572 /_   30.0   0.99933
   -  2       2.4005 /_ -120.0   0.99948     4.160        2-3     4.1579 /_  -90.0    0.9995
   -  3       2.4005 /_  120.0   0.99949     4.160        3-1     4.1577 /_  150.0   0.99944
49 .. 1       2.3942 /_   -0.1   0.99684     4.160        1-2     4.1482 /_   29.9   0.99717
   -  2        2.398 /_ -120.1   0.99844     4.160        2-3     4.1526 /_  -90.1   0.99823
   -  3       2.3964 /_  119.9   0.99775     4.160        3-1     4.1501 /_  149.9   0.99763
50 .. 1       2.3927 /_   -0.2   0.99621     4.160        1-2      4.146 /_   29.9   0.99664
   -  2       2.3983 /_ -120.0   0.99857     4.160        2-3     4.1517 /_  -90.1   0.99801
   -  3       2.3943 /_  119.9   0.99689     4.160        3-1     4.1476 /_  149.8   0.99702
51 .. 1       2.3908 /_   -0.2   0.99544     4.160        1-2     4.1439 /_   29.9   0.99613
   -  2       2.3988 /_ -120.0   0.99876     4.160        2-3     4.1511 /_  -90.1   0.99785
   -  3        2.393 /_  119.9   0.99636     4.160        3-1     4.1457 /_  149.8   0.99657
151 . 1       2.3879 /_   -0.3   0.99423     4.160        1-2     4.1403 /_   29.9   0.99526
   -  2       2.3993 /_ -120.0   0.99897     4.160        2-3     4.1497 /_  -90.1   0.99753
   -  3       2.3906 /_  119.9   0.99533     4.160        3-1     4.1423 /_  149.8   0.99574
52 .. 1        2.378 /_   -0.4   0.99012     4.160        1-2     4.1307 /_   29.9   0.99296
   -  2       2.3968 /_ -120.2   0.99791     4.160        2-3      4.142 /_  -90.2   0.99567
   -  3       2.3883 /_  119.9   0.99438     4.160        3-1     4.1341 /_  149.7   0.99377
53 .. 1       2.3762 /_   -0.4   0.98936     4.160        1-2     4.1285 /_   29.8   0.99243
   -  2       2.3955 /_ -120.2   0.99738     4.160        2-3       4.14 /_  -90.2   0.99519
   -  3       2.3879 /_  119.9   0.99422     4.160        3-1     4.1323 /_  149.7   0.99334
54 .. 1       2.3755 /_   -0.4   0.98905     4.160        1-2     4.1274 /_   29.8   0.99216
   -  2       2.3945 /_ -120.2   0.99695     4.160        2-3     4.1387 /_  -90.2   0.99487
   -  3       2.3877 /_  119.9   0.99414     4.160        3-1     4.1313 /_  149.7    0.9931
55 .. 1        2.375 /_   -0.4   0.98884     4.160        1-2     4.1269 /_   29.8   0.99205
   -  2       2.3943 /_ -120.2   0.99688     4.160        2-3     4.1384 /_  -90.2    0.9948
   -  3       2.3879 /_  119.9   0.99421     4.160        3-1     4.1311 /_  149.7   0.99306
57 .. 1       2.3742 /_   -0.4   0.98853     4.160        1-2     4.1246 /_   29.8   0.99148
   -  2       2.3916 /_ -120.2   0.99575     4.160        2-3     4.1355 /_  -90.2    0.9941
   -  3       2.3872 /_  119.9   0.99393     4.160        3-1     4.1293 /_  149.7   0.99263
56 .. 1       2.3749 /_   -0.4   0.98881     4.160        1-2     4.1268 /_   29.8   0.99202
   -  2       2.3938 /_ -120.2    0.9967     4.160        2-3      4.138 /_  -90.2   0.99472
   -  3       2.3881 /_  119.9    0.9943     4.160        3-1     4.1311 /_  149.7   0.99305
58 .. 2         2.39 /_ -120.3   0.99509     4.160
60 .. 1       2.3718 /_   -0.4   0.98752     4.160        1-2     4.1192 /_   29.8   0.99018
   -  2       2.3877 /_ -120.3   0.99415     4.160        2-3     4.1303 /_  -90.2   0.99286
   -  3       2.3848 /_  119.9   0.99293     4.160        3-1     4.1248 /_  149.7   0.99155
59 .. 2       2.3892 /_ -120.3   0.99476     4.160
61 .. 1       2.3718 /_   -0.4   0.98752     4.160        1-2     4.1192 /_   29.8   0.99018
   -  2       2.3877 /_ -120.3   0.99415     4.160        2-3     4.1303 /_  -90.2   0.99286
   -  3       2.3848 /_  119.9   0.99293     4.160        3-1     4.1248 /_  149.7   0.99155
62 .. 1       2.3733 /_   -0.3   0.98813     4.160        1-2     4.1214 /_   29.8   0.99072
   -  2       2.3881 /_ -120.2   0.99431     4.160        2-3     4.1314 /_  -90.2   0.99314
   -  3       2.3855 /_  119.9   0.99322     4.160        3-1     4.1259 /_  149.7   0.99181
63 .. 1       2.3742 /_   -0.3    0.9885     4.160        1-2      4.123 /_   29.9    0.9911
   -  2       2.3882 /_ -120.2   0.99436     4.160        2-3     4.1328 /_  -90.2   0.99347
   -  3        2.387 /_  119.9   0.99386     4.160        3-1     4.1273 /_  149.7   0.99214
64 .. 1       2.3781 /_   -0.2   0.99012     4.160        1-2     4.1274 /_   29.9   0.99215
   -  2        2.388 /_ -120.2   0.99428     4.160        2-3     4.1356 /_  -90.1   0.99413
   -  3       2.3897 /_  119.9   0.99498     4.160        3-1     4.1313 /_  149.8    0.9931
65 .. 1       2.3901 /_   -0.1   0.99512     4.160        1-2     4.1438 /_   29.9   0.99611
   -  2       2.3949 /_ -120.1   0.99712     4.160        2-3     4.1475 /_  -90.1   0.99698
   -  3       2.3951 /_  120.0   0.99721     4.160        3-1     4.1448 /_  149.9   0.99635
66 .. 1       2.4011 /_    0.0   0.99971     4.160        1-2     4.1588 /_   30.0   0.99971
   -  2       2.4012 /_ -120.0   0.99978     4.160        2-3      4.159 /_  -90.0   0.99976
   -  3       2.4011 /_  120.0    0.9997     4.160        3-1     4.1588 /_  150.0   0.99971
67 .. 1       2.3719 /_   -0.4   0.98754     4.160        1-2     4.1174 /_   29.7   0.98976
   -  2       2.3861 /_ -120.3   0.99349     4.160        2-3     4.1276 /_  -90.2    0.9922
   -  3       2.3831 /_  119.8   0.99222     4.160        3-1     4.1237 /_  149.6   0.99128
68 .. 1        2.368 /_   -0.5   0.98594     4.160
72 .. 1       2.3748 /_   -0.4   0.98876     4.160        1-2     4.1192 /_   29.7    0.9902
   -  2       2.3847 /_ -120.3   0.99288     4.160        2-3     4.1269 /_  -90.3   0.99204
   -  3       2.3831 /_  119.8   0.99223     4.160        3-1     4.1252 /_  149.6   0.99163
97 .. 1       2.3715 /_   -0.4   0.98738     4.160        1-2     4.1162 /_   29.7   0.98948
   -  2       2.3852 /_ -120.3    0.9931     4.160        2-3     4.1265 /_  -90.2   0.99195
   -  3       2.3824 /_  119.8   0.99194     4.160        3-1     4.1225 /_  149.6   0.99099
69 .. 1       2.3636 /_   -0.5    0.9841     4.160
70 .. 1       2.3604 /_   -0.5   0.98279     4.160
71 .. 1       2.3587 /_   -0.5   0.98206     4.160
73 .. 3       2.3779 /_  119.8   0.99005     4.160
76 .. 1        2.376 /_   -0.4   0.98927     4.160        1-2     4.1207 /_   29.7   0.99055
   -  2       2.3839 /_ -120.3   0.99256     4.160        2-3      4.127 /_  -90.3   0.99207
   -  3        2.385 /_  119.8   0.99302     4.160        3-1     4.1277 /_  149.6   0.99223
74 .. 3       2.3734 /_  119.7    0.9882     4.160
75 .. 3       2.3709 /_  119.7   0.98714     4.160
77 .. 1       2.3813 /_   -0.3   0.99147     4.160        1-2     4.1288 /_   29.7    0.9925
   -  2       2.3871 /_ -120.3   0.99391     4.160        2-3     4.1335 /_  -90.2   0.99363
   -  3        2.389 /_  119.8   0.99469     4.160        3-1     4.1347 /_  149.7   0.99393
N86 . 1        2.376 /_   -0.4   0.98926     4.160        1-2     4.1206 /_   29.7   0.99053
   -  2       2.3838 /_ -120.3   0.99253     4.160        2-3     4.1269 /_  -90.3   0.99205
   -  3        2.385 /_  119.8   0.99302     4.160        3-1     4.1277 /_  149.6   0.99223
86 .. 1       2.3737 /_   -0.4    0.9883     4.160        1-2     4.1177 /_   29.6   0.98982
   -  2       2.3794 /_ -120.5   0.99067     4.160        2-3     4.1231 /_  -90.3   0.99113
   -  3       2.3884 /_  119.8   0.99441     4.160        3-1     4.1285 /_  149.6   0.99243
78 .. 1       2.3826 /_   -0.3   0.99203     4.160        1-2     4.1309 /_   29.8   0.99301
   -  2       2.3883 /_ -120.3   0.99438     4.160        2-3     4.1354 /_  -90.2   0.99409
   -  3       2.3899 /_  119.9   0.99504     4.160        3-1     4.1365 /_  149.7   0.99435
79 .. 1       2.3819 /_   -0.3   0.99174     4.160        1-2     4.1303 /_   29.8   0.99287
   -  2       2.3886 /_ -120.3   0.99451     4.160        2-3     4.1353 /_  -90.2   0.99407
   -  3       2.3898 /_  119.9     0.995     4.160        3-1     4.1363 /_  149.7    0.9943
80 .. 1       2.3905 /_   -0.2   0.99532     4.160        1-2     4.1423 /_   29.8   0.99573
   -  2        2.393 /_ -120.2   0.99633     4.160        2-3     4.1445 /_  -90.1   0.99628
   -  3       2.3942 /_  119.9   0.99683     4.160        3-1     4.1453 /_  149.8   0.99646
81 .. 1       2.3935 /_   -0.2   0.99655     4.160        1-2     4.1466 /_   29.9   0.99678
   -  2       2.3952 /_ -120.1   0.99728     4.160        2-3     4.1483 /_  -90.1   0.99719
   -  3       2.3955 /_  119.9   0.99737     4.160        3-1     4.1485 /_  149.9   0.99723
82 .. 1        2.397 /_   -0.1   0.99803     4.160        1-2     4.1527 /_   29.9   0.99825
   -  2       2.3986 /_ -120.1   0.99869     4.160        2-3     4.1541 /_  -90.1   0.99858
   -  3       2.3985 /_  119.9   0.99864     4.160        3-1     4.1539 /_  149.9   0.99854
84 .. 3        2.389 /_  119.8   0.99469     4.160
83 .. 1       2.4014 /_    0.0   0.99984     4.160        1-2     4.1595 /_   30.0   0.99988
   -  2       2.4017 /_ -120.0   0.99996     4.160        2-3       4.16 /_  -90.0   0.99999
   -  3       2.4017 /_  120.0   0.99997     4.160        3-1     4.1596 /_  150.0   0.99991
85 .. 3        2.386 /_  119.8   0.99343     4.160
87 .. 1       2.3723 /_   -0.5   0.98774     4.160        1-2     4.1162 /_   29.5   0.98947
   -  2       2.3774 /_ -120.6   0.98983     4.160        2-3     4.1209 /_  -90.3    0.9906
   -  3       2.3896 /_  119.8   0.99493     4.160        3-1     4.1285 /_  149.5   0.99243
88 .. 1       2.3721 /_   -0.5   0.98766     4.160
89 .. 1       2.3713 /_   -0.5   0.98732     4.160        1-2     4.1158 /_   29.5   0.98937
   -  2       2.3767 /_ -120.6   0.98955     4.160        2-3     4.1203 /_  -90.4   0.99046
   -  3       2.3905 /_  119.7    0.9953     4.160        3-1     4.1281 /_  149.5   0.99232
90 .. 2       2.3764 /_ -120.7   0.98944     4.160
91 .. 1       2.3708 /_   -0.5   0.98712     4.160        1-2      4.115 /_   29.5   0.98919
   -  2       2.3759 /_ -120.7   0.98922     4.160        2-3     4.1201 /_  -90.4    0.9904
   -  3       2.3909 /_  119.7   0.99548     4.160        3-1     4.1277 /_  149.5   0.99223
92 .. 3       2.3906 /_  119.7   0.99535     4.160
93 .. 1       2.3701 /_   -0.5   0.98679     4.160        1-2     4.1142 /_   29.5   0.98899
   -  2       2.3755 /_ -120.7   0.98905     4.160        2-3     4.1194 /_  -90.4   0.99025
   -  3       2.3912 /_  119.7   0.99558     4.160        3-1     4.1275 /_  149.5   0.99218
94 .. 1       2.3683 /_   -0.5   0.98606     4.160
95 .. 1         2.37 /_   -0.5   0.98676     4.160        1-2     4.1139 /_   29.5   0.98892
   -  2       2.3745 /_ -120.7   0.98866     4.160        2-3     4.1187 /_  -90.4   0.99007
   -  3       2.3916 /_  119.7   0.99577     4.160        3-1     4.1275 /_  149.5   0.99219
96 .. 2       2.3739 /_ -120.7   0.98839     4.160
98 .. 1       2.3709 /_   -0.4   0.98716     4.160        1-2     4.1152 /_   29.7   0.98923
   -  2       2.3846 /_ -120.3   0.99283     4.160        2-3     4.1256 /_  -90.3   0.99173
   -  3        2.382 /_  119.8   0.99175     4.160        3-1     4.1217 /_  149.6   0.99079
99 .. 1       2.3716 /_   -0.4   0.98744     4.160        1-2     4.1145 /_   29.7   0.98907
   -  2       2.3825 /_ -120.3   0.99199     4.160        2-3     4.1238 /_  -90.3   0.99129
   -  3       2.3813 /_  119.8   0.99146     4.160        3-1     4.1206 /_  149.6   0.99052
100 . 1       2.3721 /_   -0.4   0.98763     4.160        1-2     4.1145 /_   29.7   0.98905
   -  2       2.3824 /_ -120.3   0.99193     4.160        2-3     4.1235 /_  -90.3   0.99122
   -  3       2.3803 /_  119.8   0.99107     4.160        3-1     4.1198 /_  149.6   0.99035
197 . 1       2.3715 /_   -0.4   0.98738     4.160        1-2     4.1162 /_   29.7   0.98948
   -  2       2.3852 /_ -120.3    0.9931     4.160        2-3     4.1265 /_  -90.2   0.99195
   -  3       2.3824 /_  119.8   0.99194     4.160        3-1     4.1225 /_  149.6   0.99099
101 . 1       2.3716 /_   -0.4   0.98743     4.160        1-2      4.116 /_   29.7   0.98943
   -  2       2.3848 /_ -120.3   0.99294     4.160        2-3     4.1263 /_  -90.2    0.9919
   -  3       2.3822 /_  119.8   0.99184     4.160        3-1      4.122 /_  149.6   0.99087
102 . 3       2.3786 /_  119.8   0.99034     4.160
105 . 1       2.3706 /_   -0.4   0.98704     4.160        1-2     4.1159 /_   29.7   0.98941
   -  2       2.3848 /_ -120.3   0.99291     4.160        2-3     4.1268 /_  -90.2   0.99201
   -  3       2.3841 /_  119.9   0.99263     4.160        3-1     4.1232 /_  149.6   0.99116
103 . 3       2.3744 /_  119.8   0.98861     4.160
104 . 3       2.3699 /_  119.7   0.98674     4.160
106 . 2       2.3819 /_ -120.3   0.99172     4.160
108 . 1       2.3697 /_   -0.4   0.98665     4.160        1-2     4.1165 /_   29.8   0.98953
   -  2       2.3867 /_ -120.3   0.99374     4.160        2-3     4.1288 /_  -90.2    0.9925
   -  3       2.3852 /_  119.9   0.99308     4.160        3-1     4.1244 /_  149.6   0.99143
107 . 2       2.3782 /_ -120.3   0.99019     4.160
109 . 1       2.3597 /_   -0.5   0.98249     4.160
300 . 1        2.378 /_   -0.2   0.99009     4.160        1-2     4.1272 /_   29.9   0.99212
   -  2        2.388 /_ -120.2   0.99426     4.160        2-3     4.1355 /_  -90.1   0.99411
   -  3       2.3897 /_  119.9   0.99496     4.160        3-1     4.1312 /_  149.8   0.99308
110 . 1        2.355 /_   -0.5   0.98051     4.160
111 . 1       2.3531 /_   -0.5   0.97974     4.160
112 . 1       2.3534 /_   -0.5   0.97986     4.160
113 . 1       2.3485 /_   -0.6    0.9778     4.160
114 . 1       2.3474 /_   -0.6   0.97736     4.160
135 . 1       2.3828 /_   -0.4    0.9921     4.160        1-2      4.136 /_   29.9   0.99424
   -  2       2.3989 /_ -120.1    0.9988     4.160        2-3     4.1469 /_  -90.2   0.99686
   -  3       2.3907 /_  119.9   0.99539     4.160        3-1       4.14 /_  149.7   0.99518
152 . 1       2.3829 /_   -0.3   0.99216     4.160        1-2     4.1361 /_   29.9   0.99425
   -  2       2.3986 /_ -120.1   0.99868     4.160        2-3     4.1459 /_  -90.2    0.9966
   -  3       2.3891 /_  119.9   0.99474     4.160        3-1     4.1381 /_  149.7   0.99472
160 . 1       2.3718 /_   -0.4   0.98752     4.160        1-2     4.1192 /_   29.8   0.99018
   -  2       2.3877 /_ -120.3   0.99415     4.160        2-3     4.1303 /_  -90.2   0.99286
   -  3       2.3848 /_  119.9   0.99293     4.160        3-1     4.1248 /_  149.7   0.99155
150R  1       2.4018 /_    0.0         1     4.160        1-2       4.16 /_   30.0         1
   -  2       2.4018 /_ -120.0         1     4.160        2-3       4.16 /_  -90.0         1
   -  3       2.4018 /_  120.0         1     4.160        3-1       4.16 /_  150.0         1
9R .. 1        2.382 /_   -0.3   0.99176     4.160
25R . 1       2.3831 /_   -0.4   0.99224     4.160
   -  3       2.3727 /_  119.9   0.98787     4.160        3-1     4.1249 /_  149.8   0.99157
160R  1       2.3718 /_   -0.4   0.98752     4.160        1-2     4.1321 /_   29.9   0.99329
   -  2       2.4027 /_ -120.3    1.0004     4.160        2-3     4.1819 /_  -90.0    1.0053
   -  3       2.4295 /_  119.9    1.0115     4.160        3-1     4.1637 /_  149.4    1.0009
