models/IEEE_123_FLISR_Case_DG/ieee123_VLN_Node.Txt

LINE-GROUND and LINE-LINE VOLTAGES BY BUS & NODE

Bus   Node    VLN (kV)   Angle      pu     Base kV    Node-Node   VLL (kV)  Angle      pu

150 . 1       2.4018 /_    0.0   0.99999     4.160        1-2       4.16 /_   30.0   0.99999
   -  2       2.4018 /_ -120.0   0.99999     4.160        2-3       4.16 /_  -90.0   0.99999
   -  3       2.4018 /_  120.0   0.99999     4.160        3-1       4.16 /_  150.0   0.99999
149 . 1       2.4018 /_    0.0   0.99999     4.160        1-2       4.16 /_   30.0   0.99999
   -  2       2.4018 /_ -120.0   0.99999     4.160        2-3       4.16 /_  -90.0   0.99999
   -  3       2.4018 /_  120.0   0.99999     4.160        3-1       4.16 /_  150.0   0.99999
1 ... 1       2.3712 /_   -0.6   0.98726     4.160        1-2     4.1211 /_   29.7   0.99066
   -  2       2.3952 /_ -120.3   0.99725     4.160        2-3     4.1366 /_  -90.5   0.99438
   -  3       2.3798 /_  119.6   0.99087     4.160        3-1     4.1198 /_  149.4   0.99033
2 ... 2       2.3946 /_ -120.3   0.99702     4.160
3 ... 3       2.3759 /_  119.6   0.98923     4.160
7 ... 1       2.3484 /_   -1.1   0.97778     4.160        1-2      4.093 /_   29.4    0.9839
   -  2       2.3905 /_ -120.6    0.9953     4.160        2-3     4.1202 /_  -90.8   0.99044
   -  3       2.3657 /_  119.3   0.98498     4.160        3-1     4.0922 /_  149.0    0.9837
4 ... 3       2.3746 /_  119.6   0.98869     4.160
5 ... 3       2.3728 /_  119.5   0.98795     4.160
6 ... 3       2.3713 /_  119.5    0.9873     4.160
8 ... 1       2.3337 /_   -1.4   0.97164     4.160        1-2     4.0746 /_   29.3   0.97947
   -  2       2.3872 /_ -120.8   0.99393     4.160        2-3     4.1093 /_  -91.0   0.98782
   -  3       2.3563 /_  119.2   0.98107     4.160        3-1      4.074 /_  148.7   0.97933
12 .. 2       2.3865 /_ -120.8   0.99363     4.160
9 ... 1       2.3301 /_   -1.5   0.97016     4.160
13 .. 1       2.3141 /_   -1.9   0.96349     4.160        1-2     4.0488 /_   29.0   0.97327
   -  2       2.3814 /_ -121.0   0.99153     4.160        2-3     4.0932 /_  -91.3   0.98395
   -  3       2.3423 /_  118.9   0.97523     4.160        3-1     4.0477 /_  148.3     0.973
14 .. 1       2.3262 /_   -1.5   0.96852     4.160
34 .. 3       2.3399 /_  118.9   0.97423     4.160
18 .. 1       2.2927 /_   -2.3    0.9546     4.160        1-2      4.018 /_   28.8   0.96586
   -  2       2.3715 /_ -121.3    0.9874     4.160        2-3     4.0653 /_  -91.6   0.97724
   -  3        2.324 /_  118.8   0.96762     4.160        3-1     4.0205 /_  148.0   0.96646
11 .. 1       2.3246 /_   -1.5   0.96788     4.160
10 .. 1       2.3254 /_   -1.5   0.96819     4.160
15 .. 3       2.3389 /_  118.8   0.97383     4.160
16 .. 3       2.3365 /_  118.8   0.97281     4.160
17 .. 3       2.3378 /_  118.8   0.97336     4.160
19 .. 1       2.2895 /_   -2.3   0.95325     4.160
21 .. 1       2.2915 /_   -2.4    0.9541     4.160        1-2     4.0159 /_   28.8   0.96535
   -  2       2.3717 /_ -121.3   0.98746     4.160        2-3     4.0635 /_  -91.6    0.9768
   -  3       2.3211 /_  118.8   0.96639     4.160        3-1     4.0174 /_  148.0   0.96573
20 .. 1       2.2875 /_   -2.4    0.9524     4.160
22 .. 2       2.3684 /_ -121.3    0.9861     4.160
N21 . 1       2.2906 /_   -2.4   0.95372     4.160        1-2     4.0143 /_   28.8   0.96499
   -  2       2.3726 /_ -121.2   0.98783     4.160        2-3     4.0626 /_  -91.6   0.97658
   -  3       2.3183 /_  118.7   0.96523     4.160        3-1     4.0149 /_  148.0   0.96513
23 .. 1       2.2906 /_   -2.4   0.95369     4.160        1-2     4.0143 /_   28.8   0.96497
   -  2       2.3726 /_ -121.2   0.98783     4.160        2-3     4.0625 /_  -91.6   0.97657
   -  3       2.3182 /_  118.7    0.9652     4.160        3-1     4.0148 /_  148.0    0.9651
24 .. 3       2.3146 /_  118.7   0.96369     4.160
25 .. 1        2.289 /_   -2.5   0.95306     4.160        1-2     4.0125 /_   28.8   0.96454
   -  2       2.3736 /_ -121.2   0.98827     4.160        2-3     4.0618 /_  -91.7    0.9764
   -  3        2.316 /_  118.7   0.96429     4.160        3-1     4.0127 /_  147.9   0.96459
26 .. 1       2.2885 /_   -2.5   0.95282     4.160
   -  3       2.3148 /_  118.7   0.96377     4.160        3-1     4.0114 /_  147.9   0.96428
28 .. 1       2.2882 /_   -2.5   0.95271     4.160        1-2     4.0116 /_   28.8   0.96433
   -  2       2.3741 /_ -121.2   0.98849     4.160        2-3     4.0615 /_  -91.7   0.97633
   -  3       2.3152 /_  118.7   0.96394     4.160        3-1     4.0118 /_  147.9   0.96438
27 .. 1       2.2876 /_   -2.5   0.95246     4.160
   -  3       2.3147 /_  118.7   0.96374     4.160        3-1     4.0112 /_  147.9   0.96422
31 .. 3       2.3133 /_  118.7   0.96316     4.160
33 .. 1       2.2844 /_   -2.6   0.95114     4.160
29 .. 1       2.2879 /_   -2.5   0.95257     4.160        1-2      4.011 /_   28.7   0.96419
   -  2       2.3745 /_ -121.2   0.98864     4.160        2-3     4.0612 /_  -91.7   0.97624
   -  3        2.314 /_  118.7   0.96347     4.160        3-1     4.0108 /_  147.9   0.96414
30 .. 1       2.2885 /_   -2.5   0.95285     4.160        1-2     4.0112 /_   28.7   0.96422
   -  2       2.3744 /_ -121.2   0.98859     4.160        2-3     4.0608 /_  -91.7   0.97616
   -  3       2.3129 /_  118.7     0.963     4.160        3-1       4.01 /_  147.9   0.96394
250 . 1       2.2885 /_   -2.5   0.95285     4.160        1-2     4.0112 /_   28.7   0.96422
   -  2       2.3744 /_ -121.2   0.98859     4.160        2-3     4.0608 /_  -91.7   0.97616
   -  3       2.3129 /_  118.7     0.963     4.160        3-1       4.01 /_  147.9   0.96394
32 .. 3       2.3123 /_  118.7   0.96275     4.160
35 .. 1       2.2861 /_   -2.4   0.95185     4.160        1-2      4.007 /_   28.7   0.96321
   -  2       2.3654 /_ -121.4   0.98485     4.160        2-3     4.0573 /_  -91.6   0.97531
   -  3       2.3214 /_  118.7   0.96655     4.160        3-1      4.013 /_  147.9   0.96465
36 .. 1        2.284 /_   -2.4   0.95095     4.160        1-2     4.0047 /_   28.7   0.96267
   -  2       2.3642 /_ -121.4   0.98435     4.160
40 .. 1       2.2825 /_   -2.4   0.95034     4.160        1-2     4.0017 /_   28.7   0.96194
   -  2       2.3627 /_ -121.4   0.98372     4.160        2-3     4.0527 /_  -91.7   0.97422
   -  3       2.3189 /_  118.7   0.96549     4.160        3-1     4.0074 /_  147.9   0.96332
37 .. 1       2.2822 /_   -2.4    0.9502     4.160
38 .. 2       2.3626 /_ -121.4   0.98368     4.160
39 .. 2       2.3615 /_ -121.4   0.98325     4.160
41 .. 3       2.3178 /_  118.7   0.96505     4.160
42 .. 1       2.2787 /_   -2.5   0.94875     4.160        1-2     3.9964 /_   28.6   0.96068
   -  2         2.36 /_ -121.5   0.98261     4.160        2-3     4.0483 /_  -91.7   0.97315
   -  3       2.3168 /_  118.6    0.9646     4.160        3-1     4.0022 /_  147.8   0.96207
43 .. 2       2.3569 /_ -121.5   0.98131     4.160
44 .. 1       2.2761 /_   -2.5   0.94766     4.160        1-2     3.9926 /_   28.6   0.95977
   -  2       2.3583 /_ -121.5    0.9819     4.160        2-3     4.0452 /_  -91.7    0.9724
   -  3       2.3148 /_  118.6   0.96378     4.160        3-1     3.9982 /_  147.8    0.9611
45 .. 1       2.2748 /_   -2.5   0.94712     4.160
47 .. 1       2.2736 /_   -2.5   0.94663     4.160        1-2     3.9885 /_   28.6   0.95878
   -  2       2.3557 /_ -121.5   0.98082     4.160        2-3     4.0412 /_  -91.8   0.97145
   -  3       2.3124 /_  118.6   0.96278     4.160        3-1     3.9934 /_  147.7   0.95995
46 .. 1       2.2738 /_   -2.5   0.94671     4.160
48 .. 1        2.273 /_   -2.5   0.94637     4.160        1-2     3.9874 /_   28.6    0.9585
   -  2        2.355 /_ -121.5   0.98054     4.160        2-3     4.0403 /_  -91.8   0.97122
   -  3       2.3119 /_  118.5   0.96257     4.160        3-1     3.9924 /_  147.7    0.9597
49 .. 1       2.2729 /_   -2.5   0.94635     4.160        1-2     3.9867 /_   28.6   0.95835
   -  2       2.3543 /_ -121.5   0.98024     4.160        2-3     4.0397 /_  -91.8   0.97108
   -  3       2.3116 /_  118.5   0.96245     4.160        3-1     3.9917 /_  147.7   0.95955
50 .. 1       2.2729 /_   -2.6   0.94633     4.160        1-2     3.9863 /_   28.6   0.95825
   -  2       2.3544 /_ -121.5   0.98027     4.160        2-3     4.0395 /_  -91.8   0.97102
   -  3       2.3107 /_  118.5   0.96209     4.160        3-1     3.9909 /_  147.7   0.95936
51 .. 1       2.2725 /_   -2.6   0.94616     4.160        1-2      3.986 /_   28.6   0.95817
   -  2       2.3546 /_ -121.5   0.98035     4.160        2-3     4.0395 /_  -91.8   0.97103
   -  3       2.3107 /_  118.5   0.96208     4.160        3-1     3.9908 /_  147.7   0.95933
151 . 1       2.2725 /_   -2.6   0.94616     4.160        1-2      3.986 /_   28.6   0.95817
   -  2       2.3546 /_ -121.5   0.98035     4.160        2-3     4.0395 /_  -91.8   0.97103
   -  3       2.3107 /_  118.5   0.96208     4.160        3-1     3.9908 /_  147.7   0.95933
52 .. 1        2.299 /_   -2.2   0.95722     4.160        1-2     4.0304 /_   28.8   0.96885
   -  2       2.3777 /_ -121.3   0.98999     4.160        2-3     4.0828 /_  -91.6   0.98145
   -  3       2.3342 /_  118.6   0.97184     4.160        3-1     4.0299 /_  147.9   0.96874
53 .. 1       2.2922 /_   -2.4   0.95438     4.160        1-2     4.0217 /_   28.7   0.96675
   -  2       2.3755 /_ -121.4   0.98908     4.160        2-3     4.0776 /_  -91.8   0.98019
   -  3       2.3302 /_  118.5   0.97018     4.160        3-1     4.0213 /_  147.8   0.96667
54 .. 1       2.2883 /_   -2.5   0.95277     4.160        1-2     4.0166 /_   28.6   0.96552
   -  2       2.3739 /_ -121.5   0.98841     4.160        2-3     4.0743 /_  -91.9   0.97939
   -  3       2.3277 /_  118.4   0.96916     4.160        3-1     4.0161 /_  147.7   0.96541
55 .. 1       2.2879 /_   -2.5   0.95257     4.160        1-2     4.0161 /_   28.6   0.96542
   -  2       2.3737 /_ -121.5   0.98832     4.160        2-3      4.074 /_  -91.9   0.97932
   -  3       2.3279 /_  118.4   0.96924     4.160        3-1     4.0159 /_  147.7   0.96537
57 .. 1       2.2803 /_   -2.8   0.94943     4.160        1-2     4.0016 /_   28.4   0.96192
   -  2       2.3666 /_ -121.7   0.98534     4.160        2-3     4.0624 /_  -92.1   0.97654
   -  3       2.3213 /_  118.2   0.96649     4.160        3-1     4.0051 /_  147.4   0.96276
56 .. 1       2.2878 /_   -2.5   0.95254     4.160        1-2      4.016 /_   28.6   0.96538
   -  2       2.3733 /_ -121.5   0.98814     4.160        2-3     4.0736 /_  -91.9   0.97924
   -  3       2.3281 /_  118.4   0.96933     4.160        3-1     4.0159 /_  147.7   0.96536
58 .. 2        2.365 /_ -121.7   0.98468     4.160
60 .. 1       2.2636 /_   -3.5   0.94247     4.160        1-2     3.9704 /_   27.9   0.95443
   -  2       2.3533 /_ -122.1    0.9798     4.160        2-3     4.0389 /_  -92.5    0.9709
   -  3       2.3063 /_  117.7   0.96025     4.160        3-1     3.9815 /_  146.8    0.9571
59 .. 2       2.3642 /_ -121.7   0.98434     4.160
61 .. 1       2.2636 /_   -3.5   0.94247     4.160        1-2     3.9704 /_   27.9   0.95443
   -  2       2.3533 /_ -122.1    0.9798     4.160        2-3     4.0389 /_  -92.5    0.9709
   -  3       2.3063 /_  117.7   0.96025     4.160        3-1     3.9815 /_  146.8    0.9571
62 .. 1       2.2618 /_   -3.5   0.94171     4.160        1-2     3.9661 /_   27.9    0.9534
   -  2       2.3506 /_ -122.1   0.97869     4.160        2-3     4.0331 /_  -92.5    0.9695
   -  3       2.3014 /_  117.7   0.95819     4.160        3-1     3.9753 /_  146.8    0.9556
63 .. 1       2.2603 /_   -3.5   0.94111     4.160        1-2     3.9632 /_   27.9   0.95268
   -  2       2.3486 /_ -122.1   0.97784     4.160        2-3     4.0297 /_  -92.5   0.96867
   -  3       2.2989 /_  117.7   0.95718     4.160        3-1     3.9715 /_  146.8    0.9547
64 .. 1       2.2597 /_   -3.5   0.94083     4.160        1-2     3.9584 /_   27.9   0.95153
   -  2       2.3441 /_ -122.0   0.97599     4.160        2-3     4.0226 /_  -92.5   0.96698
   -  3       2.2936 /_  117.7   0.95498     4.160        3-1     3.9653 /_  146.9    0.9532
65 .. 1       2.2582 /_   -3.5    0.9402     4.160        1-2     3.9553 /_   27.9   0.95079
   -  2       2.3434 /_ -122.0   0.97569     4.160        2-3     4.0167 /_  -92.6   0.96556
   -  3       2.2863 /_  117.7   0.95193     4.160        3-1     3.9577 /_  146.9   0.95138
66 .. 1       2.2587 /_   -3.5   0.94045     4.160        1-2     3.9552 /_   27.9   0.95076
   -  2        2.344 /_ -122.0   0.97594     4.160        2-3     4.0146 /_  -92.6   0.96505
   -  3       2.2825 /_  117.7   0.95036     4.160        3-1     3.9554 /_  146.9   0.95082
67 .. 1       2.2583 /_   -3.8   0.94027     4.160        1-2     3.9618 /_   27.6   0.95237
   -  2       2.3505 /_ -122.3   0.97866     4.160        2-3     4.0307 /_  -92.7   0.96891
   -  3       2.3005 /_  117.6   0.95785     4.160        3-1     3.9745 /_  146.6    0.9554
68 .. 1       2.2544 /_   -3.8   0.93863     4.160
72 .. 1       2.2588 /_   -3.9   0.94049     4.160        1-2     3.9602 /_   27.5   0.95197
   -  2        2.348 /_ -122.4   0.97763     4.160        2-3     4.0282 /_  -92.8   0.96831
   -  3       2.2997 /_  117.4   0.95749     4.160        3-1     3.9737 /_  146.5   0.95521
97 .. 1       2.2559 /_   -3.8   0.93925     4.160        1-2      3.958 /_   27.6   0.95143
   -  2       2.3492 /_ -122.3   0.97811     4.160        2-3     4.0279 /_  -92.7   0.96825
   -  3       2.2988 /_  117.5   0.95711     4.160        3-1     3.9715 /_  146.6   0.95468
69 .. 1       2.2499 /_   -3.8   0.93675     4.160
70 .. 1       2.2467 /_   -3.9   0.93543     4.160
71 .. 1       2.2449 /_   -3.9   0.93468     4.160
73 .. 3       2.2944 /_  117.4   0.95528     4.160
76 .. 1       2.2583 /_   -3.9   0.94026     4.160        1-2     3.9592 /_   27.4   0.95173
   -  2       2.3466 /_ -122.5   0.97701     4.160        2-3      4.027 /_  -92.9   0.96802
   -  3        2.301 /_  117.4   0.95802     4.160        3-1     3.9746 /_  146.4   0.95544
74 .. 3       2.2899 /_  117.4   0.95343     4.160
75 .. 3       2.2873 /_  117.3   0.95233     4.160
77 .. 1       2.2607 /_   -4.0   0.94127     4.160        1-2     3.9637 /_   27.4   0.95281
   -  2        2.349 /_ -122.6   0.97802     4.160        2-3     4.0306 /_  -93.0   0.96889
   -  3       2.3027 /_  117.3   0.95876     4.160        3-1      3.978 /_  146.4   0.95624
N86 . 1       2.2583 /_   -3.9   0.94025     4.160        1-2     3.9591 /_   27.4   0.95171
   -  2       2.3465 /_ -122.5   0.97698     4.160        2-3     4.0269 /_  -92.9   0.96801
   -  3       2.3009 /_  117.4   0.95802     4.160        3-1     3.9746 /_  146.4   0.95543
86 .. 1       2.2557 /_   -4.0   0.93917     4.160        1-2     3.9559 /_   27.3   0.95094
   -  2        2.342 /_ -122.7    0.9751     4.160        2-3     4.0229 /_  -92.9   0.96705
   -  3       2.3042 /_  117.4   0.95939     4.160        3-1     3.9752 /_  146.4   0.95558
78 .. 1       2.2614 /_   -4.0   0.94154     4.160        1-2     3.9649 /_   27.3    0.9531
   -  2       2.3499 /_ -122.6    0.9784     4.160        2-3     4.0317 /_  -93.0   0.96916
   -  3        2.303 /_  117.3   0.95888     4.160        3-1     3.9788 /_  146.3   0.95644
79 .. 1       2.2607 /_   -4.0   0.94126     4.160        1-2     3.9644 /_   27.3   0.95297
   -  2       2.3502 /_ -122.6   0.97853     4.160        2-3     4.0316 /_  -93.0   0.96915
   -  3       2.3029 /_  117.3   0.95884     4.160        3-1     3.9786 /_  146.3   0.95639
80 .. 1       2.2658 /_   -4.1   0.94338     4.160        1-2     3.9719 /_   27.3   0.95479
   -  2       2.3537 /_ -122.7   0.97998     4.160        2-3     4.0374 /_  -93.1   0.97052
   -  3       2.3046 /_  117.2   0.95954     4.160        3-1     3.9832 /_  146.3   0.95749
81 .. 1       2.2675 /_   -4.1   0.94409     4.160        1-2     3.9747 /_   27.3   0.95545
   -  2       2.3557 /_ -122.7    0.9808     4.160        2-3     4.0399 /_  -93.1   0.97113
   -  3       2.3049 /_  117.1   0.95967     4.160        3-1     3.9848 /_  146.2   0.95787
82 .. 1       2.2692 /_   -4.2    0.9448     4.160        1-2     3.9785 /_   27.2   0.95637
   -  2       2.3586 /_ -122.7   0.98202     4.160        2-3     4.0439 /_  -93.2   0.97209
   -  3       2.3066 /_  117.1   0.96037     4.160        3-1     3.9879 /_  146.2   0.95863
84 .. 3       2.2982 /_  117.1   0.95688     4.160
83 .. 1       2.2717 /_   -4.2   0.94586     4.160        1-2      3.983 /_   27.2   0.95746
   -  2       2.3612 /_ -122.7   0.98309     4.160        2-3      4.048 /_  -93.2   0.97307
   -  3       2.3084 /_  117.1   0.96112     4.160        3-1     3.9913 /_  146.2   0.95944
85 .. 3       2.2951 /_  117.1   0.95557     4.160
87 .. 1       2.2542 /_   -4.0   0.93854     4.160        1-2     3.9543 /_   27.2   0.95054
   -  2       2.3399 /_ -122.8   0.97425     4.160        2-3     4.0206 /_  -93.0   0.96649
   -  3       2.3054 /_  117.3   0.95988     4.160        3-1     3.9751 /_  146.3   0.95556
88 .. 1       2.2539 /_   -4.0   0.93843     4.160
89 .. 1       2.2531 /_   -4.0   0.93811     4.160        1-2     3.9538 /_   27.2   0.95044
   -  2       2.3392 /_ -122.8   0.97396     4.160        2-3       4.02 /_  -93.0   0.96635
   -  3       2.3063 /_  117.3   0.96023     4.160        3-1     3.9746 /_  146.3   0.95544
90 .. 2        2.339 /_ -122.9   0.97384     4.160
91 .. 1       2.2526 /_   -4.0   0.93791     4.160        1-2     3.9531 /_   27.2   0.95025
   -  2       2.3385 /_ -122.8   0.97364     4.160        2-3     4.0197 /_  -93.0   0.96628
   -  3       2.3067 /_  117.3    0.9604     4.160        3-1     3.9742 /_  146.3   0.95533
92 .. 3       2.3062 /_  117.3   0.96021     4.160
93 .. 1       2.2518 /_   -4.0   0.93757     4.160        1-2     3.9522 /_   27.2   0.95005
   -  2       2.3381 /_ -122.9   0.97347     4.160        2-3     4.0191 /_  -93.0   0.96612
   -  3       2.3069 /_  117.3    0.9605     4.160        3-1      3.974 /_  146.3   0.95529
94 .. 1         2.25 /_   -4.0   0.93682     4.160
95 .. 1       2.2517 /_   -4.0   0.93753     4.160        1-2     3.9519 /_   27.2   0.94998
   -  2       2.3371 /_ -122.9   0.97307     4.160        2-3     4.0183 /_  -93.0   0.96594
   -  3       2.3074 /_  117.3   0.96069     4.160        3-1      3.974 /_  146.3   0.95529
96 .. 2       2.3364 /_ -122.9   0.97279     4.160
98 .. 1       2.2553 /_   -3.8   0.93901     4.160        1-2     3.9569 /_   27.6   0.95118
   -  2       2.3486 /_ -122.3   0.97785     4.160        2-3      4.027 /_  -92.8   0.96802
   -  3       2.2984 /_  117.5   0.95694     4.160        3-1     3.9707 /_  146.5   0.95449
99 .. 1       2.2559 /_   -3.8   0.93927     4.160        1-2     3.9562 /_   27.6   0.95102
   -  2       2.3465 /_ -122.3     0.977     4.160        2-3     4.0252 /_  -92.8   0.96759
   -  3       2.2977 /_  117.5   0.95668     4.160        3-1     3.9696 /_  146.5   0.95423
100 . 1       2.2564 /_   -3.8   0.93945     4.160        1-2     3.9562 /_   27.6     0.951
   -  2       2.3464 /_ -122.3   0.97694     4.160        2-3     4.0249 /_  -92.8   0.96753
   -  3       2.2968 /_  117.5   0.95631     4.160        3-1     3.9689 /_  146.5   0.95406
197 . 1       2.2559 /_   -3.8   0.93925     4.160        1-2      3.958 /_   27.6   0.95143
   -  2       2.3492 /_ -122.3   0.97811     4.160        2-3     4.0279 /_  -92.7   0.96825
   -  3       2.2988 /_  117.5   0.95711     4.160        3-1     3.9715 /_  146.6   0.95468
101 . 1        2.254 /_   -3.9   0.93846     4.160        1-2     3.9551 /_   27.6   0.95073
   -  2       2.3485 /_ -122.3    0.9778     4.160        2-3      4.026 /_  -92.8   0.96779
   -  3       2.2974 /_  117.5   0.95653     4.160        3-1     3.9692 /_  146.5   0.95415
102 . 3       2.2936 /_  117.5   0.95498     4.160
105 . 1       2.2508 /_   -3.9   0.93713     4.160        1-2      3.952 /_   27.6   0.95001
   -  2        2.348 /_ -122.4   0.97761     4.160        2-3     4.0246 /_  -92.8   0.96745
   -  3       2.2981 /_  117.6   0.95683     4.160        3-1     3.9685 /_  146.5   0.95398
103 . 3       2.2893 /_  117.5   0.95318     4.160
104 . 3       2.2847 /_  117.4   0.95125     4.160
106 . 2       2.3451 /_ -122.4   0.97639     4.160
108 . 1       2.2472 /_   -4.0   0.93565     4.160        1-2     3.9491 /_   27.6    0.9493
   -  2       2.3495 /_ -122.4   0.97825     4.160        2-3     4.0245 /_  -92.8   0.96742
   -  3       2.2977 /_  117.6   0.95668     4.160        3-1     3.9675 /_  146.5   0.95372
107 . 2       2.3414 /_ -122.4   0.97484     4.160
109 . 1       2.2373 /_   -4.1   0.93154     4.160
300 . 1       2.2472 /_   -4.0   0.93565     4.160        1-2     3.9491 /_   27.6    0.9493
   -  2       2.3495 /_ -122.4   0.97825     4.160        2-3     4.0245 /_  -92.8   0.96742
   -  3       2.2977 /_  117.6   0.95668     4.160        3-1     3.9675 /_  146.5   0.95372
110 . 1       2.2327 /_   -4.1   0.92961     4.160
111 . 1       2.2308 /_   -4.1   0.92883     4.160
112 . 1       2.2312 /_   -4.1   0.92897     4.160
113 . 1       2.2264 /_   -4.2   0.92698     4.160
114 . 1       2.2254 /_   -4.2   0.92655     4.160
135 . 1       2.2927 /_   -2.3    0.9546     4.160        1-2      4.018 /_   28.8   0.96586
   -  2       2.3715 /_ -121.3    0.9874     4.160        2-3     4.0653 /_  -91.6   0.97724
   -  3        2.324 /_  118.8   0.96762     4.160        3-1     4.0205 /_  148.0   0.96646
152 . 1       2.3141 /_   -1.9   0.96349     4.160        1-2     4.0488 /_   29.0   0.97327
   -  2       2.3814 /_ -121.0   0.99153     4.160        2-3     4.0932 /_  -91.3   0.98395
   -  3       2.3423 /_  118.9   0.97523     4.160        3-1     4.0477 /_  148.3     0.973
160 . 1       2.2636 /_   -3.5   0.94247     4.160        1-2     3.9704 /_   27.9   0.95443
   -  2       2.3533 /_ -122.1    0.9798     4.160        2-3     4.0389 /_  -92.5    0.9709
   -  3       2.3063 /_  117.7   0.96025     4.160        3-1     3.9815 /_  146.8    0.9571
SUP_3 1            0 /_    0.0         0     4.160        1-2          0 /_    0.0         0
   -  2            0 /_    0.0         0     4.160        2-3          0 /_    0.0         0
   -  3            0 /_    0.0         0     4.160        3-1          0 /_    0.0         0
SUP_2 1            0 /_    0.0         0     4.160        1-2          0 /_    0.0         0
   -  2            0 /_    0.0         0     4.160        2-3          0 /_    0.0         0
   -  3            0 /_    0.0         0     4.160        3-1          0 /_    0.0         0
SUP_1 1            0 /_    0.0         0     4.160        1-2          0 /_    0.0         0
   -  2            0 /_    0.0         0     4.160        2-3          0 /_    0.0         0
   -  3            0 /_    0.0         0     4.160        3-1          0 /_    0.0         0
150R  1       2.4018 /_    0.0   0.99999     4.160        1-2       4.16 /_   30.0   0.99999
   -  2       2.4018 /_ -120.0   0.99999     4.160        2-3       4.16 /_  -90.0   0.99999
   -  3       2.4018 /_  120.0   0.99999     4.160        3-1       4.16 /_  150.0   0.99999
9R .. 1       2.3301 /_   -1.5   0.97016     4.160
25R . 1        2.289 /_   -2.5   0.95306     4.160
   -  3       2.3015 /_  118.7   0.95826     4.160        3-1     4.0001 /_  148.0   0.96155
160R  1       2.2636 /_   -3.5   0.94247     4.160        1-2     3.9832 /_   28.0    0.9575
   -  2        2.368 /_ -122.1   0.98592     4.160        2-3     4.0891 /_  -92.3   0.98296
   -  3       2.3495 /_  117.7   0.97825     4.160        3-1     4.0194 /_  146.5    0.9662
